/*--------------------------------*- C++ -*----------------------------------*\
  =========                 |
  \\      /  F ield         | OpenFOAM: The Open Source CFD Toolbox
   \\    /   O peration     | Website:  https://openfoam.org
    \\  /    A nd           | Version:  dev
     \\/     M anipulation  |
\*---------------------------------------------------------------------------*/
FoamFile
{
    format      ascii;
    class       extendedFeatureEdgeMesh;
    location    "constant/extendedFeatureEdgeMesh";
    object      burj.extendedFeatureEdgeMesh;
}
// * * * * * * * * * * * * * * * * * * * * * * * * * * * * * * * * * * * * * //

// points

10888
(
(-10.5273 28.331 171.6)
(-10.7753 28.1599 171.221)
(-4.38137 -38.8577 32.789)
(-4.02765 -39.0832 33.0335)
(-6.36935 20.9726 171.582)
(-6.12133 21.1436 171.961)
(1.78475 25.8743 44.323)
(-3.06466 33.4393 43.7313)
(2.93855 31.425 37.3262)
(-3.59937 27.0384 32.9405)
(-3.94254 26.7992 32.6941)
(-5.07496 26.0498 84.9771)
(-5.40969 25.8175 84.6051)
(-1.19794 23.1206 98.5003)
(-0.841838 23.3677 98.896)
(-6.60518 31.7914 97.9514)
(-6.24908 32.0385 98.3471)
(-12.8998 27.1969 90.4836)
(-12.565 27.4291 90.8556)
(3.30362 31.6795 37.5883)
(2.14982 26.1288 44.5851)
(-2.69958 33.6939 43.9934)
(-4.68395 21.8207 39.5175)
(-5.02712 21.5815 39.2711)
(-9.58556 28.6926 38.7149)
(20.9869 -55.3141 53.0706)
(20.7687 -55.175 52.9198)
(20.9438 43.814 53.1116)
(20.2745 40.5945 57.1698)
(17.4619 44.9823 56.8266)
(28.7396 33.5722 13.893)
(20.732 43.6663 52.9596)
(-3.34155 27.5621 167.241)
(-3.58958 27.391 166.862)
(4.26113 -48.832 49.2354)
(3.90741 -48.6066 48.9909)
(1.363 30.3239 91.6977)
(1.7191 30.5711 92.0934)
(-9.24238 28.9319 38.9613)
(-10.3169 -40.9369 172.395)
(-10.0638 -41.0969 172.775)
(-1.20677 -37.5841 178.44)
(-1.42751 -37.4445 178.108)
(-5.55399 -43.5107 178.839)
(0.53774 -43.6872 174.711)
(0.317001 -43.5476 174.379)
(-5.77473 -43.3711 178.507)
(6.36654 -40.4038 105.594)
(0.770012 -48.1973 106.282)
(7.84472 -47.9175 99.7701)
(-24.5966 14.6577 7.61031)
(-15.4969 25.3687 164.475)
(-15.7608 25.1867 164.072)
(-7.48223 19.2786 91.3715)
(9.07749 -47.6957 42.3503)
(8.7654 -41.7062 48.3259)
(34.382 35.9813 47.2167)
(-11.0736 17.5406 164.456)
(-10.8097 17.7226 164.859)
(-5.08042 -34.3029 172.318)
(-3.08061 -41.2992 168.043)
(-3.33365 -41.1391 167.662)
(-32.1414 -16.7386 197.364)
(30.3 47.7533 7.61031)
(27.5622 51.617 7.61031)
(24.202 31.6347 160.348)
(29.3873 -63.0977 7.61031)
(31.9946 -59.1554 7.61031)
(20.1804 46.3863 7.61031)
(-43.377 -9.30787 285.791)
(-45.9843 -13.2502 285.791)
(24.4484 -54.1647 7.61031)
(21.8412 -58.107 7.61031)
(14.5972 -46.2602 52.4325)
(14.2886 -46.0636 52.2192)
(14.8694 -51.4851 47.2197)
(14.5609 -51.2884 47.0064)
(10.3594 -52.2797 53.0126)
(4.07208 32.5905 181.931)
(3.91905 32.4849 181.697)
(-5.95759 30.6331 177.688)
(-6.17395 30.4839 177.358)
(0.310804 29.9624 173.886)
(0.0944428 29.8132 173.556)
(-2.1141 24.3633 178.004)
(-2.33046 24.2141 177.673)
(-0.514697 32.9593 184.387)
(-0.36165 33.0649 184.62)
(-18.1779 -35.3131 84.8553)
(-17.8743 -35.5028 85.177)
(8.19275 -48.1349 100.139)
(6.71458 -40.6212 105.963)
(1.11804 -48.4147 106.651)
(-38.6437 4.70415 7.61031)
(-25.4991 8.21454 21.8544)
(-35.9058 0.840426 7.61031)
(2.20388 28.5246 184.609)
(2.35691 28.6301 184.843)
(5.47603 27.9651 105.844)
(5.1413 27.7328 105.472)
(0.393233 36.1157 105.328)
(0.0584915 35.8834 104.956)
(10.578 32.0247 111.396)
(10.87 32.2273 111.721)
(7.88332 34.7363 99.4496)
(7.54858 34.504 99.0776)
(8.61421 30.8229 49.1501)
(8.27105 30.5837 48.9037)
(3.71261 37.6948 48.3476)
(9.35562 35.8013 42.3268)
(13.8227 34.9105 52.7493)
(9.84618 41.1139 52.2641)
(14.7688 39.4621 47.0119)
(14.1221 35.1192 52.9642)
(15.0682 39.6708 47.2269)
(10.1456 41.3225 52.4791)
(4.05578 37.9341 48.594)
(-46.1681 -0.627586 285.791)
(-43.4303 -4.49131 285.791)
(10.0508 -52.083 52.7993)
(-5.33346 -34.1429 171.937)
(-31.983 -16.8434 193.764)
(6.14403 39.1348 110.946)
(12.6779 37.9315 105.818)
(9.69879 36.0406 42.5732)
(20.0628 40.4469 57.0177)
(12.9699 38.1341 106.142)
(-26.6936 -20.3415 62.6722)
(6.43604 39.3374 111.27)
(7.20445 -51.7217 112.466)
(6.90085 -51.5321 112.144)
(13.376 -51.4776 106.785)
(13.0724 -51.2879 106.463)
(11.7829 -44.7335 111.544)
(-20.3555 12.2914 150.059)
(-25.3035 10.3248 142.47)
(-20.5719 12.1421 149.729)
(-25.4565 10.2193 142.236)
(9.13315 -22.5834 211.707)
(4.2873 -35.0258 211.707)
(12.0865 -44.9231 111.866)
(21.0487 23.3716 154.48)
(2.59347 -37.3141 44.0018)
(-2.57461 -44.6549 44.7092)
(2.92547 -43.6858 37.6447)
(10.8234 -23.2894 196.68)
(18.1463 -4.13166 208.088)
(15.9916 -4.16496 209.866)
(18.1463 -4.13166 209.866)
(13.8748 -4.19768 209.866)
(-23.9326 -27.8342 7.61031)
(33.5579 8.44878 154.687)
(8.62598 10.4652 211.707)
(3.62593 -21.0912 211.707)
(-35.6851 -14.395 7.61031)
(-23.5883 14.2852 139.558)
(-23.7414 14.1796 139.324)
(-28.1751 14.654 142.013)
(-28.0221 14.7596 142.247)
(1.65299 -42.804 38.1024)
(2.00515 -43.0441 38.3956)
(2.02136 -43.0452 38.3725)
(1.63677 -42.8029 38.1256)
(-10.7178 -34.6829 29.0423)
(-11.0263 -34.4862 28.8291)
(-24.199 18.5612 149.744)
(-24.4154 18.4119 149.414)
(-15.2278 -35.4775 34.8352)
(-15.5364 -35.2808 34.6219)
(-18.4946 17.5504 146.52)
(-18.718 17.3935 146.197)
(-18.5052 17.5348 146.533)
(-18.7074 17.4091 146.183)
(-13.6449 20.7367 153.287)
(-13.9011 20.5568 152.917)
(-13.6571 20.7187 153.302)
(-13.8889 20.5747 152.901)
(-13.1846 21.0412 152.164)
(-15.9643 14.6227 156.884)
(-20.3703 21.81 156.522)
(-10.99 -29.4581 34.2551)
(-4.33972 -33.0937 39.0091)
(-9.19773 -39.9941 39.6741)
(-9.55144 -39.7686 39.4296)
(-21.2205 -30.259 29.4539)
(-18.0305 -29.697 25.3565)
(-18.2231 -26.0014 29.0436)
(-8.11637 24.3687 159.435)
(-17.8122 -29.8361 25.5074)
(-11.2986 -29.2614 34.0418)
(-20.1223 21.9811 156.901)
(-2.95091 -44.415 44.4491)
(-15.7163 14.7938 157.262)
(-21.0023 -30.3981 29.6048)
(-18.0048 -26.1405 29.1945)
(-8.58966 24.0517 160.618)
(-8.86216 23.8604 160.224)
(-8.60258 24.0326 160.634)
(-8.84923 23.8794 160.208)
(2.54918 -43.446 37.3846)
(-4.69344 -32.8683 38.7647)
(39.0686 25.9091 19.8436)
(-18.2695 -29.7052 25.7389)
(-18.0652 -29.8445 25.9089)
(-18.0558 -29.8451 25.8955)
(-18.2789 -29.7046 25.7523)
(-1.53179 24.4787 97.7339)
(-1.90175 24.2601 97.3328)
(-1.54565 24.5072 97.7286)
(-1.88788 24.2316 97.3382)
(2.21718 -37.0742 43.7417)
(-7.85251 24.5507 159.838)
(-12.9365 21.2122 152.542)
(-2.42234 25.3225 177.239)
(-2.21803 25.4904 177.563)
(-2.20862 25.4699 177.566)
(-2.43175 25.343 177.236)
(0.544361 29.8008 92.6375)
(0.179888 29.5441 92.2544)
(0.53225 29.7809 92.6597)
(0.192 29.5639 92.2323)
(10.6914 33.4381 111.125)
(10.3917 33.261 110.8)
(10.6802 33.4611 111.121)
(10.403 33.2379 110.805)
(-7.81697 19.0463 90.9995)
(-12.2162 21.2983 79.3965)
(-12.515 21.0878 79.0824)
(-12.2261 21.282 79.4147)
(-12.5051 21.1041 79.0642)
(16.6913 37.6154 118.087)
(13.5551 42.6445 117.768)
(18.1767 41.7934 114.141)
(18.3832 41.9367 114.371)
(-10.2135 22.5564 28.9139)
(-11.1597 18.0048 34.6512)
(-15.1362 24.2081 34.1661)
(13.7617 42.7878 117.998)
(-19.1357 16.5795 73.0302)
(-19.3471 16.4307 72.808)
(-19.1427 16.568 73.043)
(-19.3401 16.4422 72.7951)
(16.8979 37.7587 118.316)
(-20.874 19.0308 29.0577)
(-21.0858 18.8831 28.9056)
(-11.459 17.796 34.4363)
(-15.4355 23.9994 33.9511)
(-10.5129 22.3477 28.6989)
(-23.5944 17.7463 76.2764)
(-23.8009 17.603 76.0469)
(-18.2731 14.4954 29.2488)
(-17.6039 17.7148 25.1907)
(1.00346 30.0916 93.132)
(0.63899 29.8349 92.7488)
(0.99135 30.0717 93.1541)
(0.651104 29.8547 92.7267)
(-14.0576 15.5104 83.8817)
(-13.7656 15.713 84.2062)
(-18.1995 22.8231 83.7562)
(-18.4915 22.6204 83.4317)
(-18.9729 16.8952 72.6493)
(-19.1794 16.7519 72.4197)
(-20.6647 12.5739 76.3652)
(-20.4582 12.7172 76.5948)
(-0.0538847 -45.8487 185.463)
(0.102244 -45.9474 185.698)
(-9.71862 -30.9146 165.159)
(-9.98781 -30.7444 164.755)
(-17.6003 -31.7261 146.652)
(-17.8211 -31.5865 146.32)
(-19.5656 -25.4835 150.049)
(-19.3448 -25.623 150.381)
(-23.2487 -27.8363 139.996)
(-24.4827 -23.5195 142.634)
(-27.5575 -27.7115 142.916)
(-4.04635 26.7503 33.9441)
(-4.39451 26.5045 33.7101)
(-4.05299 26.7363 33.9657)
(-4.38787 26.5185 33.6885)
(2.84028 31.3768 38.6388)
(2.46988 31.1154 38.3898)
(2.83321 31.3619 38.6618)
(2.47695 31.1303 38.3669)
(-11.7027 -35.2586 79.4965)
(-12.9922 -28.7042 84.5772)
(-18.0319 15.2299 28.6474)
(-18.2432 15.0752 28.5011)
(-18.0325 15.2182 28.6588)
(-18.2426 15.0869 28.4897)
(-10.575 22.3616 29.6907)
(-10.8787 22.1472 29.4865)
(-10.5807 22.3494 29.7095)
(-10.8729 22.1594 29.4677)
(0.306982 -36.1009 99.0358)
(-0.0632712 -35.8697 98.6435)
(-12.4214 -39.6662 91.928)
(-12.0733 -39.8836 92.2968)
(17.9555 -50.1822 118.326)
(18.1702 -50.3163 118.554)
(8.76084 11.6455 196.678)
(-6.01703 -44.1606 99.3749)
(-5.64677 -44.3919 99.7673)
(39.0686 25.9091 20.4135)
(-21.3254 -23.8919 7.61031)
(18.1863 -6.72215 208.088)
(1.50925 -43.8629 92.4475)
(18.1863 -6.72215 209.866)
(-17.3922 17.8625 25.3427)
(-18.0614 14.643 29.4008)
(-8.91552 -37.4542 160.469)
(-8.67947 -37.6191 160.897)
(-8.65695 -37.6241 160.881)
(-8.93804 -37.4493 160.485)
(-12.8742 -34.8476 152.903)
(-12.6212 -35.0076 153.284)
(-19.8575 -34.6453 157.636)
(-19.6044 -34.8054 158.016)
(-15.2893 -37.9719 165.241)
(-15.0201 -38.1422 165.646)
(-14.621 -28.0114 157.559)
(-14.8741 -27.8514 157.178)
(-33.433 -7.90331 194.673)
(-33.433 -7.90331 196.68)
(-33.056 -6.73537 194.673)
(-33.056 -6.73537 196.68)
(3.1771 -41.7554 185.416)
(3.02097 -41.6567 185.181)
(-39.5713 -1.8793 194.673)
(-23.0926 -27.935 140.231)
(-7.86037 -38.1871 160.207)
(-24.3265 -23.6182 142.869)
(-27.4014 -27.8102 143.151)
(-28.1787 -5.3067 211.707)
(-17.3697 -18.1044 211.707)
(4.73855 -28.5157 211.707)
(23.7663 -28.2824 20.0923)
(-18.9328 6.84237 211.707)
(3.85137 16.5706 211.707)
(-7.59117 -38.3574 160.611)
(4.41103 -46.0722 182.778)
(4.25489 -45.9735 182.543)
(-23.9128 -31.4101 150.448)
(-18.3394 -31.1864 146.888)
(-18.1458 -31.3216 147.239)
(-18.1274 -31.3257 147.225)
(-18.3579 -31.1823 146.901)
(-23.692 -31.5497 150.78)
(-57.4093 23.1402 196.936)
(-57.8511 -37.3041 196.177)
(-57.8511 -37.3041 196.936)
(-57.4093 23.1402 196.177)
(-57.1584 23.1524 196.828)
(-57.6055 -37.3148 196.816)
(-57.8511 -37.3041 202.153)
(-57.8511 -37.3041 201.407)
(-57.4093 23.1402 202.153)
(-57.4093 23.1402 201.407)
(19.0823 -54.9524 114.96)
(18.8675 -54.8183 114.733)
(-6.82485 -31.8727 91.2404)
(-6.47681 -32.0901 91.6092)
(14.7171 -55.1251 118.978)
(14.5023 -54.991 118.75)
(-20.0726 -25.5886 76.947)
(-23.5258 -30.3974 77.3712)
(-19.1606 -30.2247 73.3533)
(-13.2958 -28.5146 84.2555)
(-19.8579 -25.7228 77.1745)
(8.24665 -51.1027 111.847)
(7.96374 -50.8962 111.524)
(8.26364 -51.0835 111.842)
(7.94675 -50.9153 111.529)
(-12.0063 -35.069 79.1748)
(-4.99864 -39.6037 85.785)
(-5.34667 -39.3863 85.4163)
(1.8795 -44.0942 92.8399)
(-22.76 -30.2715 76.5999)
(-22.566 -30.4088 76.8444)
(-22.5515 -30.4059 76.8331)
(-22.7745 -30.2745 76.6112)
(-18.9458 -30.3588 73.5809)
(-23.3111 -30.5315 77.5988)
(-4.90021 -43.3437 98.582)
(-5.24948 -43.0888 98.1838)
(-4.87923 -43.3201 98.5761)
(-5.27046 -43.1124 98.1896)
(-12.4919 -34.6736 79.9391)
(-12.2156 -34.8604 80.2872)
(-12.1971 -34.8635 80.2688)
(-12.5104 -34.6704 79.9575)
(17.7969 -55.8762 57.168)
(17.5786 -55.737 57.0172)
(20.5761 -51.4794 56.6069)
(20.7944 -51.6185 56.7577)
(17.2502 44.8346 56.6746)
(9.11913 -41.9317 48.5704)
(9.43121 -47.9211 42.5948)
(10.9063 -23.4047 196.158)
(13.8685 36.1155 52.3499)
(13.5622 35.9292 52.1331)
(13.8579 36.1353 52.3455)
(13.5728 35.9094 52.1376)
(27.425 -39.0261 20.0923)
(21.0488 23.3717 154.48)
(-15.166 -11.5559 210.717)
(3.06218 21.9474 210.717)
(-15.8005 0.57847 210.717)
(7.21153 -22.4876 210.717)
(3.94133 -34.2385 210.717)
(8.34578 -22.9293 210.717)
(7.8279 10.7857 210.717)
(6.7056 10.3065 210.717)
(-11.3282 -34.2176 29.599)
(-11.0395 -34.4144 29.8393)
(-11.0262 -34.4153 29.8204)
(-11.3415 -34.2167 29.6179)
(-20.6695 -30.0703 28.6872)
(-20.4668 -30.2139 28.8554)
(-20.4558 -30.2102 28.8438)
(-20.6804 -30.074 28.6988)
(-25.075 11.0525 141.899)
(-25.2291 10.9388 141.67)
(-25.0785 11.0387 141.907)
(-25.2256 10.9526 141.662)
(2.11319 -43.1212 38.4274)
(2.46536 -43.3613 38.7205)
(2.48158 -43.3624 38.6974)
(2.09698 -43.1201 38.4505)
(-4.79866 -38.5431 33.7854)
(-4.46763 -38.7688 34.0609)
(-4.45238 -38.7698 34.0392)
(-4.8139 -38.5421 33.8071)
(-2.08919 -43.6187 43.679)
(-2.44785 -43.3576 43.4131)
(-2.07155 -43.5975 43.6731)
(-2.46549 -43.3789 43.419)
(-23.7713 13.9795 139.844)
(-23.9293 13.8686 139.615)
(-23.7788 13.9685 139.853)
(-23.9218 13.8796 139.606)
(11.1796 -51.6739 52.3844)
(10.8891 -51.4624 52.169)
(11.1939 -51.6567 52.3796)
(10.8748 -51.4796 52.1738)
(-5.76348 25.5929 85.9686)
(-6.10608 25.3516 85.6084)
(-5.77486 25.5742 85.9894)
(-6.0947 25.3703 85.5876)
(-20.2884 13.4818 75.8427)
(-20.4955 13.3297 75.6187)
(-20.2912 13.467 75.8537)
(-20.4928 13.3444 75.6076)
(-8.58906 -37.6844 160.975)
(-8.35301 -37.8493 161.403)
(-8.33049 -37.8542 161.387)
(-8.61158 -37.6794 160.991)
(1.36994 26.9827 43.5687)
(0.991797 26.7527 43.3011)
(1.35688 27.0072 43.5632)
(1.00486 26.7282 43.3066)
(-17.4744 17.6284 25.7281)
(-17.6892 17.4768 25.5837)
(-17.4785 17.6198 25.7414)
(-17.6851 17.4854 25.5704)
(2.37168 31.0746 38.3115)
(2.00129 30.8132 38.0625)
(2.36462 31.0597 38.3345)
(2.00836 30.8281 38.0396)
(0.821133 -43.372 93.4826)
(1.15798 -43.5997 93.9071)
(1.1806 -43.6036 93.8846)
(0.798516 -43.3681 93.5051)
(31.1003 -30.377 18.7758)
(40.0846 -36.8162 20.4135)
(40.0846 -36.8162 19.8436)
(31.1003 -30.377 20.4173)
(-14.4827 -37.1406 164.234)
(-14.1945 -37.2905 164.635)
(-14.2135 -37.3108 164.639)
(-14.4636 -37.1203 164.23)
(-4.78457 -42.872 178.065)
(-4.55107 -42.9934 178.389)
(-4.56653 -43.0099 178.393)
(-4.76911 -42.8555 178.062)
(-13.5711 -34.3631 153.636)
(-13.3492 -34.5181 154.038)
(-13.328 -34.5227 154.023)
(-13.5923 -34.3584 153.652)
(4.83928 -20.3338 210.717)
(-26.3156 -5.31033 208.913)
(-23.5941 -27.7793 140.278)
(-23.4572 -27.875 140.526)
(-23.4442 -27.8778 140.517)
(-23.6072 -27.7764 140.288)
(6.33334 10.1476 210.717)
(4.52578 -27.9682 210.717)
(6.83439 -22.3407 210.717)
(-16.8712 -17.8919 210.717)
(-14.7984 -11.7324 210.717)
(-18.3787 6.63898 210.717)
(3.64693 16.0433 210.717)
(-15.4349 0.752261 210.717)
(-26.6426 -27.7534 142.578)
(-26.8066 -27.6567 142.347)
(-26.6566 -27.7552 142.586)
(-26.7925 -27.6549 142.339)
(-43.5792 -1.64996 220.271)
(-43.5792 -1.64996 221.389)
(-43.3856 -14.0812 231.447)
(-43.5792 -1.64996 231.447)
(-43.5792 -1.64996 232.565)
(-43.3856 -14.0812 220.271)
(-43.3856 -14.0812 241.582)
(-43.5792 -1.64996 260.759)
(-43.3856 -14.0812 260.759)
(-43.5792 -1.64996 241.582)
(-43.5792 -1.64996 242.7)
(-43.5792 -1.64996 261.877)
(-43.5792 -1.64996 251.437)
(-43.3856 -14.0812 251.437)
(-43.5792 -1.64996 252.555)
(-19.502 -30.1899 73.7339)
(-19.3067 -30.322 73.9801)
(-19.2935 -30.3242 73.9671)
(-19.5151 -30.1876 73.7469)
(0.369753 -43.0631 92.9921)
(0.70659 -43.2908 93.4165)
(0.729217 -43.2947 93.3941)
(0.347135 -43.0592 93.0145)
(-6.00495 -38.9124 86.4045)
(-5.68832 -39.1265 86.8036)
(-5.66706 -39.1301 86.7824)
(-6.02621 -38.9087 86.4257)
(31.1779 13.6053 0.712007)
(-42.8742 -41.5328 -0.33273)
(17.276 -53.5129 0.536802)
(-28.948 25.6831 -0.203552)
(0.786544 30.063 93.2498)
(0.430443 29.8159 92.8541)
(-9.5006 27.6262 171.246)
(-9.74862 27.4552 170.867)
(-4.2242 27.0617 168.045)
(-4.47222 26.8906 167.666)
(1.45748 27.0358 43.651)
(-2.10343 32.5908 43.2164)
(2.30467 31.1118 38.5132)
(-5.06441 31.1405 97.8419)
(-5.42051 30.8934 97.4461)
(1.82255 27.2903 43.9131)
(2.66974 31.3663 38.7753)
(-1.73835 32.8454 43.4786)
(-20.2977 -26.4252 76.6663)
(-20.083 -26.5593 76.8938)
(6.34977 -41.977 105.508)
(6.00173 -41.7596 105.139)
(-5.33475 22.6733 38.6394)
(-8.682 27.895 38.231)
(-4.53839 26.5047 33.8099)
(20.0847 41.2682 56.78)
(20.5761 43.6323 53.8001)
(18.0194 44.4901 56.528)
(32.6547 20.7248 7.61031)
(27.4114 33.0051 7.61031)
(-31.9086 -22.5592 127.302)
(-32.0539 -22.4631 130.902)
(-6.51337 22.1774 171.132)
(-1.45 24.5263 97.8492)
(-1.0939 24.7735 98.245)
(-6.84161 -33.4459 91.1543)
(-7.18965 -33.2285 90.7855)
(-4.99158 22.9125 38.8858)
(-4.19522 26.744 34.0563)
(-8.33883 28.1343 38.4774)
(33.5964 8.46621 154.48)
(35.7468 2.2605 154.481)
(-4.12931 -40.5016 168.46)
(-3.87628 -40.6616 168.84)
(-0.377094 -42.9914 175.075)
(-0.156356 -43.131 175.407)
(-1.43733 -38.6496 178.145)
(-4.62954 -43.0015 178.438)
(-9.25712 -40.3531 171.935)
(-9.00408 -40.5131 172.315)
(-1.65807 -38.51 177.814)
(-4.85028 -42.8619 178.106)
(-5.57404 -35.5568 171.503)
(-5.34471 -35.5244 171.98)
(-5.59776 -35.3643 171.599)
(7.08714 -47.2768 100.863)
(1.89214 -47.4824 105.644)
(7.43518 -47.4942 101.231)
(-22.4976 11.6954 7.61031)
(-7.71918 20.6 90.7595)
(-5.95155 25.5722 86.0641)
(-11.4515 26.585 90.3806)
(8.36275 -42.8479 47.8556)
(8.59191 -47.2459 43.4678)
(4.79548 -47.9148 48.344)
(8.94562 -47.4713 43.7122)
(-6.26534 22.3485 171.511)
(28.6334 -44.5077 7.61031)
(33.4793 -32.0652 7.61031)
(6.36042 -47.8687 197.364)
(8.96768 -43.9264 197.364)
(-34.7487 -20.6809 197.364)
(-34.2974 -19.9986 197.364)
(-34.5903 -20.7857 193.764)
(7.94476 -48.9165 193.764)
(22.0257 30.7055 167.797)
(22.9182 42.5226 7.61031)
(11.1341 -51.6763 52.4482)
(14.2459 -47.2562 52.0222)
(14.4458 -51.0927 48.1945)
(-5.06198 30.0184 177.38)
(-5.27834 29.8691 177.049)
(-0.45915 29.5259 174.588)
(-2.23972 25.4144 177.611)
(18.7676 1.75501 196.679)
(-0.675515 29.3766 174.257)
(-2.45608 25.2652 177.281)
(2.24018 -47.6998 106.013)
(-36.6303 1.86278 7.61031)
(-34.7619 5.76739 210.717)
(-34.4732 1.8556 268.698)
(-32.8201 3.02697 210.717)
(-34.7805 5.73379 211.707)
(-34.6991 6.48572 197.364)
(-32.4394 3.29672 197.364)
(-35.1772 7.16045 197.364)
(-35.1707 6.28437 211.707)
(-37.211 5.71931 268.698)
(-36.8278 -19.3059 268.698)
(-34.2205 -15.3636 268.698)
(36.7315 -4.233 154.481)
(36.7316 -4.233 154.481)
(-43.4303 -4.49131 210.717)
(-32.2844 3.40655 193.764)
(-29.8032 5.16468 130.902)
(-29.6611 5.26538 127.302)
(-27.2523 6.97225 66.2724)
(-27.1102 7.07294 62.6722)
(-21.8588 10.794 7.61031)
(0.118792 32.5245 184.168)
(3.37445 32.1761 182.193)
(2.11501 29.268 184.332)
(4.90436 29.0543 104.86)
(5.23909 29.2866 105.232)
(14.5484 39.4139 48.2002)
(14.249 39.2052 47.9853)
(7.96341 31.6755 48.272)
(4.61616 36.8972 47.8636)
(8.75978 35.5069 43.4426)
(-8.79148 24.0183 160.693)
(-9.05534 23.8363 160.29)
(13.5543 35.8629 52.1982)
(10.6344 40.4181 51.8419)
(10.7662 40.3519 51.7227)
(13.8537 36.0716 52.4132)
(10.9338 40.6268 52.0569)
(-35.0189 -19.7176 211.707)
(-34.6432 -19.1495 211.707)
(0.271823 32.6301 184.402)
(3.52749 32.2817 182.427)
(2.26805 29.3736 184.565)
(10.552 -44.9742 193.764)
(-34.1163 -20.0691 193.764)
(7.00672 34.2587 100.537)
(1.50682 35.2716 104.853)
(22.8587 15.9 168.841)
(26.5418 11.5247 168.842)
(26.5418 11.5248 168.842)
(22.8587 15.8999 168.841)
(10.3713 33.1775 110.862)
(7.11545 38.3984 110.532)
(11.9132 37.5149 106.766)
(4.95932 37.1365 48.11)
(8.30657 31.9147 48.5184)
(9.10295 35.7461 43.689)
(-27.9148 9.38242 137.777)
(28.8408 49.6212 62.6722)
(-29.848 10.9367 62.6722)
(27.4719 51.553 62.6722)
(30.2097 47.6893 62.6722)
(-17.6897 13.7482 62.6722)
(-28.5535 9.10973 62.6722)
(9.32438 32.8902 193.764)
(-35.0222 7.27027 193.764)
(6.58658 36.7539 193.764)
(-17.6897 13.7482 193.764)
(-34.5204 6.56204 193.764)
(35.4059 36.4185 101.265)
(35.6247 36.5119 95.4428)
(-29.4466 -18.5208 130.902)
(25.3909 -60.4547 130.902)
(27.9982 -56.5124 130.902)
(-31.2173 -21.1982 130.902)
(35.8981 36.6286 88.1676)
(-26.8389 -20.2455 66.2724)
(29.4395 -63.1323 66.2724)
(32.0468 -59.19 66.2724)
(-29.4461 -24.1878 66.2724)
(-28.2367 -22.359 66.2724)
(5.03673 35.6557 197.364)
(7.77453 31.792 197.364)
(-29.9901 10.836 66.2724)
(30.3511 47.7895 66.2724)
(27.6133 51.6532 66.2724)
(-17.6897 13.7482 66.2724)
(-28.7173 9.03975 66.2724)
(26.0583 -60.8961 127.302)
(28.6656 -56.9538 127.302)
(-31.0512 -21.2629 127.302)
(-17.6897 13.7482 197.364)
(-17.6897 13.7482 130.902)
(-31.6591 7.78372 130.902)
(1.17208 35.0393 104.481)
(6.67198 34.0264 100.165)
(29.295 -63.0367 62.6722)
(31.9023 -59.0944 62.6722)
(-29.3009 -24.2838 62.6722)
(-28.0706 -22.4237 62.6722)
(20.2801 -36.4548 154.482)
(24.4061 -33.4913 154.482)
(24.406 -33.4913 154.482)
(20.2801 -36.4549 154.482)
(12.4115 -50.7291 107.417)
(12.7151 -50.9187 107.738)
(11.4647 -45.9162 111.147)
(7.87972 -50.9084 111.588)
(-17.6897 13.7482 127.302)
(26.3906 44.9831 130.902)
(27.0435 45.4458 127.302)
(10.6633 33.3801 111.187)
(12.2052 37.7175 107.091)
(7.40746 38.6011 110.856)
(-14.1903 15.2424 159.37)
(-25.2642 10.5142 142.359)
(-25.3656 10.4709 142.445)
(-26.6956 9.903 21.8544)
(-25.408 10.4527 142.099)
(-31.4952 7.85369 127.302)
(10.6743 25.8588 196.68)
(12.9037 26.8107 192.085)
(32.8462 20.8065 20.0923)
(13.2736 -24.1959 196.68)
(17.441 -28.5632 182.916)
(18.9531 3.03913 196.679)
(25.209 28.8343 20.0923)
(12.0504 13.1164 196.68)
(20.2167 -1.67656 196.679)
(16.3167 -20.3783 196.679)
(11.777 17.1018 189.889)
(33.8605 27.0229 44.154)
(27.2329 32.4707 44.1535)
(35.1125 -17.2129 154.482)
(36.5177 -10.7972 154.482)
(35.1125 -17.2129 154.481)
(11.7683 -46.1058 111.469)
(8.18333 -51.098 111.909)
(-25.5331 10.3993 142.205)
(-32.3989 9.1291 127.302)
(24.3057 49.3095 127.302)
(15.9255 17.7452 182.916)
(19.9438 -1.63919 196.68)
(25.3243 -25.8576 168.843)
(28.4669 -21.0793 168.843)
(25.3242 -25.8575 168.843)
(28.4668 -21.0792 168.843)
(25.3241 -25.8575 168.843)
(33.8656 27.0323 106.162)
(27.2366 32.4812 106.162)
(30.6872 -15.8088 168.842)
(30.6871 -15.8088 168.843)
(20.3654 -8.78112 196.68)
(29.3083 -39.1438 24.7064)
(38.7724 -18.3742 139.884)
(23.2058 26.5473 139.882)
(32.4992 29.9068 95.1176)
(30.3521 14.1767 154.48)
(30.352 14.1766 154.481)
(26.1224 19.2011 154.48)
(18.2486 15.8003 182.916)
(28.7409 33.0531 95.1176)
(28.8217 21.9312 139.882)
(23.2058 26.5474 139.882)
(29.4633 -39.3225 35.5866)
(29.357 -39.1999 34.9284)
(21.0488 23.3716 154.48)
(-1.62986 -43.919 44.0209)
(2.1651 -38.5286 43.5014)
(2.40888 -43.2073 38.8335)
(10.8234 -23.2893 196.68)
(11.1547 -23.7506 194.591)
(10.8235 -23.2894 196.68)
(26.1225 19.2012 154.48)
(13.8765 -4.19766 208.088)
(14.0085 -6.78673 209.866)
(14.0114 -6.78668 208.088)
(14.0705 -5.99335 209.866)
(14.0726 -6.00374 208.088)
(14.9035 -24.7826 193.146)
(17.7966 -25.9574 189.891)
(14.4608 -28.3534 189.891)
(19.4833 -26.6144 182.916)
(-45.3075 -1.84213 211.707)
(-45.1216 -2.10443 210.717)
(-45.1216 -2.10443 211.707)
(-45.3075 -1.84213 210.717)
(-21.9348 -24.8134 7.61031)
(-32.541 9.02841 130.902)
(23.6528 48.8469 130.902)
(33.5962 8.46615 154.481)
(33.5122 8.42812 154.933)
(33.4727 8.41026 155.145)
(30.3042 14.1434 154.766)
(3.06218 21.9474 211.707)
(3.38268 22.7455 211.707)
(7.8279 10.7857 211.707)
(6.7056 10.3065 211.707)
(6.33334 10.1476 211.707)
(4.97703 -20.9647 211.707)
(4.83928 -20.3338 211.707)
(8.34578 -22.9293 211.707)
(7.21153 -22.4876 211.707)
(6.83439 -22.3407 211.707)
(3.94133 -34.2385 211.707)
(35.1426 36.3061 53.2151)
(30.0502 34.1317 20.0923)
(5.42061 -35.4672 7.61031)
(-34.6142 -19.2003 210.717)
(-32.7291 -16.35 210.717)
(-44.9907 -11.7479 210.717)
(-43.377 -9.30787 210.717)
(-44.9907 -11.7479 211.707)
(-45.168 -12.016 211.707)
(-36.3762 -15.4401 7.61031)
(-28.1787 -5.3067 210.717)
(-17.3697 -18.1044 210.717)
(3.85137 16.5706 210.717)
(-18.9328 6.84237 210.717)
(4.73855 -28.5157 210.717)
(-11.2268 18.8224 163.977)
(-10.9629 19.0044 164.38)
(31.8769 29.2908 49.8916)
(-18.3301 -29.4195 26.046)
(-18.1119 -29.5586 26.1968)
(21.2728 23.7016 153.855)
(-27.5416 14.2192 141.795)
(-24.286 13.8708 139.82)
(-25.5454 10.9627 141.959)
(23.0452 -40.3033 20.0949)
(-27.0383 13.8633 142.008)
(-27.3784 14.312 142.028)
(-27.3886 14.3248 142.028)
(-24.1329 13.9764 140.054)
(-25.3923 11.0683 142.192)
(13.9245 -47.2075 51.691)
(13.9374 -47.0595 51.8089)
(-20.4543 -29.9713 29.2056)
(-20.6726 -29.8322 29.0547)
(-20.6588 13.3512 149.24)
(20.9725 23.2594 155.144)
(20.482 -5.19083 196.681)
(19.9434 -1.63929 196.68)
(35.7468 2.26048 154.481)
(31.2395 1.14832 168.842)
(31.2394 1.1483 168.842)
(29.3669 6.55215 168.842)
(29.3668 6.55212 168.842)
(24.4061 -33.4914 154.482)
(-14.6382 -34.6318 33.9209)
(35.6151 2.228 155.145)
(18.2095 19.1914 172.189)
(-23.5198 17.7972 149.105)
(-23.3034 17.9464 149.435)
(16.7992 13.955 189.889)
(18.5472 5.9602 194.701)
(26.5419 11.5248 168.841)
(29.367 6.55218 168.842)
(31.9107 -10.2221 168.843)
(30.6871 -15.8087 168.843)
(25.2806 29.6018 123.769)
(34.0456 27.21 40.8164)
(35.6901 2.2465 154.767)
(29.0682 -38.8671 134.947)
(24.414 -42.21 134.947)
(23.7225 27.2985 20.0925)
(-71.5874 8.43874 -1.82879)
(-73.3247 3.81511 -1.82879)
(-28.2369 12.0783 21.8544)
(-71.5874 8.43874 -1.10133e-06)
(-73.3247 3.81511 -1.10133e-06)
(-11.3413 -30.454 33.8448)
(-11.6498 -30.2573 33.6316)
(10.8255 -51.4796 52.2349)
(32.0971 -4.50608 168.842)
(32.097 -4.50609 168.842)
(-4.86695 -38.4079 33.9065)
(-4.51323 -38.6334 34.1509)
(21.3642 -29.9838 168.843)
(17.5828 -32.6997 168.843)
(21.3641 -29.9837 168.843)
(17.5829 -32.6998 168.843)
(-19.0956 21.2764 156.547)
(-19.3436 21.1053 156.168)
(32.0969 -4.5061 168.843)
(18.3439 19.3891 169.496)
(22.8588 15.9 168.841)
(18.4407 19.5316 168.841)
(5.14919 -48.1403 48.5884)
(29.1182 -38.9248 124.43)
(24.4584 -42.2718 124.43)
(35.1124 -17.2129 154.482)
(-14.0672 20.5407 152.968)
(-16.1084 15.8276 156.434)
(-14.4531 -34.8741 34.2708)
(-11.1414 -34.2905 30.0171)
(-8.30966 -39.3023 39.0271)
(-4.74239 -34.2354 38.5388)
(33.428 -32.0453 20.0923)
(10.8231 -23.289 196.681)
(33.9731 19.4323 19.0525)
(41.1608 23.3578 19.8436)
(31.4597 18.0597 18.7758)
(-18.4715 -26.7058 28.7534)
(-18.2532 -26.8449 28.9042)
(-14.6685 24.4369 163.695)
(-11.4499 -34.0939 29.8039)
(32.5627 -23.2655 154.482)
(32.5627 -23.2654 154.482)
(-8.66338 -39.0769 38.7827)
(27.3809 32.6883 40.816)
(31.2396 1.14834 168.842)
(18.3448 -55.4493 56.7688)
(18.1266 -55.3102 56.618)
(24.572 -42.4299 129.768)
(29.2463 -39.0725 129.768)
(18.6838 19.8897 168.239)
(2.03259 -42.9675 38.5734)
(25.4799 29.8953 123.118)
(24.6273 -42.506 24.7063)
(1.78881 -38.2887 43.2413)
(-18.7006 17.4539 146.644)
(-20.4812 13.3425 149.667)
(-17.9306 17.8905 145.942)
(-18.147 17.7412 145.612)
(28.9537 -28.7527 154.482)
(24.7647 -42.6974 35.5865)
(24.6704 -42.5661 34.9284)
(18.4406 19.5315 168.841)
(18.2047 19.1843 171.512)
(-14.7617 -34.6774 34.0576)
(14.1373 -50.896 47.9812)
(-13.8192 20.7118 153.347)
(26.0814 19.1597 154.766)
(21.025 23.3367 154.686)
(20.9969 23.2953 154.932)
(8.71647 -43.0733 48.1001)
(-18.9169 17.3047 146.313)
(-29.3013 -18.6169 127.302)
(-5.09611 -34.0099 38.2943)
(34.8438 22.4446 19.3065)
(30.6704 19.0223 18.7758)
(20.3277 -52.1838 56.3167)
(20.5459 -52.3229 56.4675)
(-2.00616 -43.6791 43.7609)
(-14.4047 24.619 164.098)
(20.4691 -54.8975 53.6093)
(20.6873 -55.0366 53.7601)
(-20.6975 13.1932 149.336)
(-15.8603 15.9987 156.812)
(31.7973 17.6481 18.7758)
(17.8423 41.642 115.041)
(17.6358 41.4987 114.812)
(16.5451 38.4307 117.709)
(14.2422 42.1236 117.475)
(14.4488 42.267 117.705)
(16.7517 38.5741 117.938)
(-11.428 18.9572 34.1002)
(-10.7333 22.2995 29.8872)
(-14.348 23.5123 33.7439)
(-6.28629 25.3399 85.6921)
(-8.02118 20.5613 90.2372)
(-11.7862 26.3527 90.0087)
(-8.05391 20.3677 90.3875)
(-11.7274 18.7485 33.8852)
(-14.6473 23.3036 33.5289)
(-11.0327 22.0908 29.6723)
(-17.5201 21.8841 83.0174)
(-17.2281 22.0867 83.3419)
(-12.4303 21.2032 79.5764)
(-12.7223 21.0005 79.2519)
(-13.9722 16.8658 83.6724)
(-14.2642 16.6631 83.3479)
(-11.6656 21.6198 78.6281)
(-11.9576 21.4172 78.3036)
(-18.4629 15.1691 28.859)
(-20.5283 18.391 28.607)
(-18.4602 15.2634 28.7635)
(-17.9716 17.5331 25.8791)
(-20.435 18.3442 28.5227)
(-18.2512 15.3167 29.0111)
(-19.5137 16.6005 73.32)
(-19.7203 16.4572 73.0905)
(-22.9073 17.2255 75.9834)
(-23.1138 17.0821 75.7538)
(-22.9928 17.0397 75.6714)
(-20.6044 13.5326 76.2172)
(-20.8109 13.3893 75.9876)
(-13.6699 -34.2101 153.701)
(-13.4169 -34.3701 154.081)
(-26.9036 -27.3513 142.632)
(-26.7475 -27.4501 142.867)
(0.599996 -45.4885 185.18)
(0.756124 -45.5872 185.414)
(3.01403 -42.509 185.207)
(2.8579 -42.4103 184.973)
(28.9538 -28.7528 154.482)
(32.5628 -23.2655 154.482)
(-9.99979 -32.214 164.799)
(-10.269 -32.0437 164.395)
(-18.5151 -31.0304 147.016)
(-18.2944 -31.17 147.348)
(-23.7397 -27.4429 140.488)
(-23.5835 -27.5417 140.723)
(33.5664 26.7259 53.0933)
(-24.6311 -24.3919 142.366)
(-22.9883 -30.9009 150.047)
(-22.7676 -31.0404 150.379)
(-24.6457 -24.2732 142.425)
(-26.79 -27.3353 142.564)
(28.1813 32.3847 49.8916)
(26.9978 32.1252 53.0929)
(20.3644 43.4846 53.6481)
(-16.8954 -34.8791 84.6208)
(-13.3104 -29.8869 84.1803)
(-12.3636 -34.6998 80.4496)
(17.8077 44.3425 56.376)
(15.4094 -54.684 118.585)
(15.1947 -54.5498 118.357)
(17.1192 -52.0155 118.035)
(-6.10424 -38.7457 86.5089)
(-5.75621 -38.963 86.8777)
(-4.45302 -43.6313 99.089)
(-4.82326 -43.4 98.6967)
(8.7608 11.6454 196.678)
(8.76075 11.6453 196.679)
(9.03554 12.1423 194.59)
(8.76056 11.645 196.68)
(19.873 41.1206 56.628)
(41.1608 23.3578 20.4135)
(31.4597 18.0597 20.4173)
(31.7973 17.6481 20.4173)
(33.7132 19.2192 20.4173)
(-38.2923 -18.3373 7.61031)
(33.6832 19.274 20.4173)
(33.9731 19.4323 20.4171)
(33.7222 19.2266 20.4173)
(-0.451363 -37.312 98.1595)
(0.703332 -43.1813 93.6099)
(35.0491 22.6131 20.4158)
(5.08418 -21.0065 196.68)
(4.9232 -21.1065 196.68)
(-17.7598 17.6808 26.0312)
(-20.3165 18.5386 28.759)
(32.5953 20.6008 20.4173)
(30.6704 19.0223 20.4173)
(-14.8853 -29.2329 157.221)
(-15.1384 -29.0728 156.84)
(3.76396 -45.5801 183.036)
(3.9201 -45.6788 183.27)
(4.5183 8.71138 194.673)
(4.5183 8.71138 196.68)
(24.1791 17.106 20.0923)
(35.2935 21.8515 20.0923)
(30.8042 19.9347 20.0923)
(30.8042 19.9347 7.61031)
(-32.1748 -7.08249 196.68)
(-32.1748 -7.08249 194.673)
(-33.4753 -5.58262 194.673)
(-33.4753 -5.58262 196.68)
(19.6778 3.26379 195.045)
(19.607 3.39952 195.117)
(-39.3903 -11.79 194.673)
(-36.5747 -9.95304 196.68)
(-39.3903 -11.79 196.68)
(-36.5747 -9.95304 194.673)
(7.54745 -19.4754 196.68)
(5.08418 -21.0065 194.673)
(-22.8277 -30.8781 149.95)
(-31.6115 -6.71494 194.673)
(-31.6115 -6.71494 196.68)
(17.6014 -19.8323 194.744)
(-36.6902 -3.62957 196.68)
(-36.6902 -3.62957 194.673)